data_EDUSIF_clean
_audit_creation_date              2014-07-02
_audit_creation_method            'Materials Studio'
_symmetry_space_group_name_H-M    'P1'
_symmetry_Int_Tables_number       1
_symmetry_cell_setting            triclinic
loop_
_symmetry_equiv_pos_as_xyz
  x,y,z
_cell_length_a                    18.2660
_cell_length_b                    18.2660
_cell_length_c                    18.2660
_cell_angle_alpha                 60.0000
_cell_angle_beta                  60.0000
_cell_angle_gamma                 60.0000
loop_
_atom_site_label
_atom_site_type_symbol
_atom_site_fract_x
_atom_site_fract_y
_atom_site_fract_z
_atom_site_U_iso_or_equiv
_atom_site_adp_type
_atom_site_occupancy
Zn1    ZnA   0.29338   0.29338   0.29338   0.01267  Uiso   1.00
Zn2    ZnA   0.29338   0.29338   0.11986   0.01267  Uiso   1.00
Zn3    ZnA   0.29338   0.11986   0.29338   0.01267  Uiso   1.00
Zn4    ZnA   0.11986   0.29338   0.29338   0.01267  Uiso   1.00
Zn5    ZnA   0.70662   0.70662   0.70662   0.01267  Uiso   1.00
Zn6    ZnA   0.70662   0.70662   0.88014   0.01267  Uiso   1.00
Zn7    ZnA   0.88014   0.70662   0.70662   0.01267  Uiso   1.00
Zn8    ZnB   0.70662   0.88014   0.70662   0.01267  Uiso   1.00
H1     HA    0.15460   0.45520   0.45520   0.01267  Uiso   1.00
H2     HA    0.45520   0.15460   0.93500   0.01267  Uiso   1.00
H3     HA    0.45520   0.93500   0.15460   0.01267  Uiso   1.00
H4     HA    0.93500   0.45520   0.45520   0.01267  Uiso   1.00
H5     HA    0.15460   0.45520   0.93500   0.01267  Uiso   1.00
H6     HA    0.45520   0.93500   0.45520   0.01267  Uiso   1.00
H7     HB    0.45520   0.15460   0.45520   0.01267  Uiso   1.00
H8     HB    0.93500   0.45520   0.15460   0.01267  Uiso   1.00
H9     HB    0.15460   0.93500   0.45520   0.01267  Uiso   1.00
H10    HB    0.45520   0.45520   0.15460   0.01267  Uiso   1.00
H11    HB    0.45520   0.45520   0.93500   0.01267  Uiso   1.00
H12    HB    0.93500   0.15460   0.45520   0.01267  Uiso   1.00
H13    HB    0.54480   0.84540   0.54480   0.01267  Uiso   1.00
H14    HC    0.84540   0.54480   0.06500   0.01267  Uiso   1.00
H15    HC    0.06500   0.54480   0.84540   0.01267  Uiso   1.00
H16    HC    0.54480   0.06500   0.54480   0.01267  Uiso   1.00
H17    HC    0.54480   0.84540   0.06500   0.01267  Uiso   1.00
H18    HC    0.06500   0.54480   0.54480   0.01267  Uiso   1.00
H19    HC    0.84540   0.54480   0.54480   0.01267  Uiso   1.00
H20    HC    0.54480   0.06500   0.84540   0.01267  Uiso   1.00
H21    HC    0.06500   0.84540   0.54480   0.01267  Uiso   1.00
H22    HD    0.54480   0.54480   0.84540   0.01267  Uiso   1.00
H23    HD    0.54480   0.54480   0.06500   0.01267  Uiso   1.00
H24    HD    0.84540   0.06500   0.54480   0.01267  Uiso   1.00
C1     CA    0.09270   0.47310   0.47310   0.01267  Uiso   1.00
C2     CA    0.47310   0.09270   0.96110   0.01267  Uiso   1.00
C3     CA    0.47310   0.96110   0.09270   0.01267  Uiso   1.00
C4     CA    0.96110   0.47310   0.47310   0.01267  Uiso   1.00
C5     CA    0.09270   0.47310   0.96110   0.01267  Uiso   1.00
C6     CA    0.47310   0.96110   0.47310   0.01267  Uiso   1.00
C7     CA    0.47310   0.09270   0.47310   0.01267  Uiso   1.00
C8     CA    0.96110   0.47310   0.09270   0.01267  Uiso   1.00
C9     CA    0.09270   0.96110   0.47310   0.01267  Uiso   1.00
C10    CA    0.47310   0.47310   0.09270   0.01267  Uiso   1.00
C11    CB    0.47310   0.47310   0.96110   0.01267  Uiso   1.00
C12    CB    0.96110   0.09270   0.47310   0.01267  Uiso   1.00
C13    CC    0.52690   0.90730   0.52690   0.01267  Uiso   1.00
C14    CC    0.90730   0.52690   0.03890   0.01267  Uiso   1.00
C15    CC    0.03890   0.52690   0.90730   0.01267  Uiso   1.00
C16    CC    0.52690   0.03890   0.52690   0.01267  Uiso   1.00
C17    CC    0.52690   0.90730   0.03890   0.01267  Uiso   1.00
C18    CC    0.03890   0.52690   0.52690   0.01267  Uiso   1.00
C19    CC    0.90730   0.52690   0.52690   0.01267  Uiso   1.00
C20    CC    0.52690   0.03890   0.90730   0.01267  Uiso   1.00
C21    CC    0.03890   0.90730   0.52690   0.01267  Uiso   1.00
C22    CC    0.52690   0.52690   0.90730   0.01267  Uiso   1.00
C23    CD    0.52690   0.52690   0.03890   0.01267  Uiso   1.00
C24    CD    0.90730   0.03890   0.52690   0.01267  Uiso   1.00
C25    CE    0.11130   0.38870   0.38870   0.01267  Uiso   1.00
C26    CE    0.05380   0.44620   0.44620   0.01267  Uiso   1.00
C27    CE    0.38870   0.11130   0.11130   0.01267  Uiso   1.00
C28    CE    0.44620   0.05380   0.05380   0.01267  Uiso   1.00
C29    CF    0.11130   0.38870   0.11130   0.01267  Uiso   1.00
C30    CF    0.05380   0.44620   0.05380   0.01267  Uiso   1.00
C31    CF    0.38870   0.11130   0.38870   0.01267  Uiso   1.00
C32    CF    0.44620   0.05380   0.44620   0.01267  Uiso   1.00
C33    CF    0.11130   0.11130   0.38870   0.01267  Uiso   1.00
C34    CF    0.05380   0.05380   0.44620   0.01267  Uiso   1.00
C35    CG    0.38870   0.38870   0.11130   0.01267  Uiso   1.00
C36    CG    0.44620   0.44620   0.05380   0.01267  Uiso   1.00
C37    CG    0.61130   0.88870   0.61130   0.01267  Uiso   1.00
C38    CG    0.55380   0.94620   0.55380   0.01267  Uiso   1.00
C39    CG    0.88870   0.61130   0.88870   0.01267  Uiso   1.00
C40    CG    0.94620   0.55380   0.94620   0.01267  Uiso   1.00
C41    CG    0.61130   0.88870   0.88870   0.01267  Uiso   1.00
C42    CG    0.55380   0.94620   0.94620   0.01267  Uiso   1.00
C43    CH    0.88870   0.61130   0.61130   0.01267  Uiso   1.00
C44    CH    0.94620   0.55380   0.55380   0.01267  Uiso   1.00
C45    CH    0.88870   0.88870   0.61130   0.01267  Uiso   1.00
C46    CH    0.94620   0.94620   0.55380   0.01267  Uiso   1.00
C47    CH    0.61130   0.61130   0.88870   0.01267  Uiso   1.00
C48    CH    0.55380   0.55380   0.94620   0.01267  Uiso   1.00
O1     OA    0.25000   0.25000   0.25000   0.01267  Uiso   1.00
O2     OA    0.75000   0.75000   0.75000   0.01267  Uiso   1.00
O3     OB    0.19777   0.36600   0.36600   0.01267  Uiso   1.00
O4     OB    0.36600   0.19777   0.07023   0.01267  Uiso   1.00
O5     OB    0.36600   0.07023   0.19777   0.01267  Uiso   1.00
O6     OB    0.07023   0.36600   0.36600   0.01267  Uiso   1.00
O7     OB    0.19777   0.36600   0.07023   0.01267  Uiso   1.00
O8     OB    0.36600   0.07023   0.36600   0.01267  Uiso   1.00
O9     OB    0.36600   0.19777   0.36600   0.01267  Uiso   1.00
O10    OB    0.07023   0.36600   0.19777   0.01267  Uiso   1.00
O11    OB    0.19777   0.07023   0.36600   0.01267  Uiso   1.00
O12    OB    0.36600   0.36600   0.19777   0.01267  Uiso   1.00
O13    OB    0.36600   0.36600   0.07023   0.01267  Uiso   1.00
O14    OB    0.07023   0.19777   0.36600   0.01267  Uiso   1.00
O15    OB    0.63400   0.80223   0.63400   0.01267  Uiso   1.00
O16    OB    0.80223   0.63400   0.92977   0.01267  Uiso   1.00
O17    OB    0.92977   0.63400   0.80223   0.01267  Uiso   1.00
O18    OB    0.63400   0.92977   0.63400   0.01267  Uiso   1.00
O19    OB    0.63400   0.80223   0.92977   0.01267  Uiso   1.00
O20    OB    0.92977   0.63400   0.63400   0.01267  Uiso   1.00
O21    OB    0.80223   0.63400   0.63400   0.01267  Uiso   1.00
O22    OC    0.63400   0.92977   0.80223   0.01267  Uiso   1.00
O23    OC    0.92977   0.80223   0.63400   0.01267  Uiso   1.00
O24    OC    0.63400   0.63400   0.80223   0.01267  Uiso   1.00
O25    OC    0.63400   0.63400   0.92977   0.01267  Uiso   1.00
O26    OC    0.80223   0.92977   0.63400   0.01267  Uiso   1.00
